/*--------------------------------*- C++ -*----------------------------------*\
  =========                 |
  \\      /  F ield         | OpenFOAM: The Open Source CFD Toolbox
   \\    /   O peration     | Website:  https://openfoam.org
    \\  /    A nd           | Version:  6
     \\/     M anipulation  |
\*---------------------------------------------------------------------------*/
FoamFile
{
    version     2.0;
    format      ascii;
    class       volScalarField;
    object      p;
}
// * * * * * * * * * * * * * * * * * * * * * * * * * * * * * * * * * * * * * //

deltaP          1.08;

rhoInf          1.205;

dimensions      [0 2 -2 0 0 0 0];

internalField   uniform 0;

boundaryField
{
    inlet
    {
        type            totalPressure;
        p0              uniform #calc "($deltaP - 1)*1.01e+5/$rhoInf";
    }

    outlet
    {
        type            fixedValue;
        value           $internalField;
    }

    valve
    {
        type            zeroGradient;
    }

    walls
    {
        type            zeroGradient;
    }
}

// ************************************************************************* //
