/*--------------------------------*- C++ -*----------------------------------*\
  =========                 |
  \\      /  F ield         | OpenFOAM: The Open Source CFD Toolbox
   \\    /   O peration     | Website:  https://openfoam.org
    \\  /    A nd           | Version:  6
     \\/     M anipulation  |
\*---------------------------------------------------------------------------*/
FoamFile
{
    version     2.0;
    format      ascii;
    class       dictionary;
    location    "system";
    object      controlDict;
}
// * * * * * * * * * * * * * * * * * * * * * * * * * * * * * * * * * * * * * //

application     simpleFoam;

startFrom       startTime;

startTime       0;

stopAt          endTime;

endTime         15000;

deltaT          1;

writeControl    timeStep;

writeInterval   200;

purgeWrite      0;

writeFormat     binary;

writePrecision  6;

writeCompression off;

timeFormat      general;

timePrecision   6;

runTimeModifiable true;

functions
{
    #includeFunc residuals(p,U,k,omega)

    #includeFunc staticPressure //[Pa]
    #includeFunc totalPressureIncompressible //[mˆ2/sˆ2], p/rho

    #includeFunc MachNoIncompressible

    fieldAmplutudes
    {
        type            fieldMinMax;
        libs            ("libfieldFunctionObjects.so");
        writeControl    timeStep;
        writeInterval   1;
        log             true;
        location        false;
        operation       magnitude;
        fields
        (
            p static(p) total(p)
            U
            Ma
        );
    }

    #includeFunc angularMomentum
}

// ************************************************************************* //